8
Lattice="21.0 0.0 0.0 0.0 21.0 0.0 0.0 0.0 21.0" Properties=species:S:1:pos:R:3:forces:R:3:magmoms:R:1 energy=-17.91197293862392 dipole="-3.826236980719316e-13 1.913118490359658e-13 -5.611814238388331e-14" magmom=0.0 free_energy=-17.91197293862392 pbc="F F F"
S        9.19478831       9.19478831       9.19478831      -0.01295074      -0.01295074      -0.01295074       0.00000000
S       11.80521169       9.19478831       9.19478831       0.01295074      -0.01295074      -0.01295074       0.00000000
S        9.19478831      11.80521169       9.19478831      -0.01295074       0.01295074      -0.01295074       0.00000000
S       11.80521169      11.80521169       9.19478831       0.01295074       0.01295074      -0.01295074       0.00000000
S        9.19478831       9.19478831      11.80521169      -0.01295074      -0.01295074       0.01295074       0.00000000
S       11.80521169       9.19478831      11.80521169       0.01295074      -0.01295074       0.01295074       0.00000000
S        9.19478831      11.80521169      11.80521169      -0.01295074       0.01295074       0.01295074       0.00000000
S       11.80521169      11.80521169      11.80521169       0.01295074       0.01295074       0.01295074       0.00000000
